[General]
network = BlockchainNetwork

*.iotNode*.inoutGateSize = 10  # Nodes can communicate freely for service requests

sim-time-limit = 50s
*.iotNode*.serviceInterval = uniform(1, 5)
*.numNodes = 100
**.maliciousNodePercentage = 0.3

