[General]
network = BlockchainNetwork

*.iotNode*.inoutGateSize = 10  # Nodes can communicate freely for service requests

sim-time-limit = 100000s
*.iotNode*.serviceInterval = uniform(1, 5)
