[General]
network = BlockchainNetwork
#network = SemiNetwork
*.iotNode*.inoutGateSize = 10  # Nodes can communicate freely for service requests

sim-time-limit = 500s
*.iotNode*.serviceInterval = uniform(1, 5)
*.numNodes = 10
**.maliciousNodePercentage = 0.3

seed-set   = 42

**.attackerType = 1
#BENEVOLENT,    0
#CAMOUFLAGE,    1
#BAD_MOUTHING,  2
#MALICIOUS_100, 3
#COLLABORATIVE, 4
#OPPORTUNISTIC  5
#I couldn't find a nicer way than this :/
